Circuit: * C:\users\jesus\Mis Documentos\UTSA\Materias\Potencia\Labs\Lab1\Full_Wave_Rectifier.asc

WARNING: Node N002 is floating.

.OP point found by inspection.

Date: Wed Mar 23 15:57:58 2022
Total elapsed time: 0.070 seconds.

tnom = 27
temp = 27
method = modified trap
totiter = 4838
traniter = 4838
tranpoints = 2075
accept = 2067
rejected = 8
matrix size = 8
fillins = 0
solver = Normal
Matrix Compiler1: 592 bytes object code size  0.2/0.1/[0.1]
Matrix Compiler2: off  [0.1]/0.1/0.1

