Circuit: * C:\users\jesus\Mis Documentos\UTSA\Pregrado\2022_1\Potencia\Labs\Lab2\Controlled_Full_Wave_Rectifier.asc

.OP point found by inspection.

Date: Thu Sep 29 08:35:15 2022
Total elapsed time: 11.432 seconds.

tnom = 27
temp = 27
method = modified trap
totiter = 389131
traniter = 389131
tranpoints = 92417
accept = 69499
rejected = 22918
matrix size = 113
fillins = 85
solver = Normal
Thread vector: 8.9/5.4[3] 1.4/2.0[1] 4.9/3.1[3] 0.4/2.1[1]  2592/500
Matrix Compiler1: 7.51 KB object code size  1.9/1.2/[0.8]
Matrix Compiler2: 8.83 KB object code size  0.6/1.3/[0.6]

