Circuit: * C:\users\jesus\Mis Documentos\UTSA\Pregrado\Potencia\Labs\Lab5\Buck_Converter.asc

Direct Newton iteration for .op point succeeded.

Date: Tue May 17 17:16:59 2022
Total elapsed time: 2.255 seconds.

tnom = 27
temp = 27
method = modified trap
totiter = 872106
traniter = 872101
tranpoints = 315571
accept = 283206
rejected = 32365
matrix size = 10
fillins = 3
solver = Normal
Matrix Compiler1: 654 bytes object code size  0.3/0.2/[0.2]
Matrix Compiler2: off  [0.2]/0.2/0.2

