Circuit: * C:\users\jesus\Mis Documentos\UTSA\Materias\Potencia\Labs\Lab4\Three_Phase_Controller.asc

Direct Newton iteration for .op point succeeded.
Heightened Def Con from 0.00415 to 0.00415
Heightened Def Con from 0.00691 to 0.00691
Heightened Def Con from 0.01243 to 0.01243

Date: Wed Apr 20 15:26:44 2022
Total elapsed time: 1.247 seconds.

tnom = 27
temp = 27
method = modified trap
totiter = 37816
traniter = 37807
tranpoints = 15669
accept = 13142
rejected = 2530
matrix size = 172
fillins = 83
solver = Normal
Thread vector: 14.4/10.7[4] 3.4/4.4[1] 14.4/4.9[4] 0.8/2.9[1]  2592/500
Matrix Compiler1: 8.92 KB object code size  5.2/2.9/[1.2]
Matrix Compiler2: 12.97 KB object code size  2.3/3.6/[1.0]

