Circuit: * C:\users\jesus\Mis Documentos\UTSA\Pregrado\2022_1\Potencia\Labs\Lab0\Half_Wave_Rectifier.asc

WARNING: Node N003 is floating.

.OP point found by inspection.

Date: Tue Sep 13 09:03:27 2022
Total elapsed time: 0.047 seconds.

tnom = 27
temp = 27
method = modified trap
totiter = 1986
traniter = 1986
tranpoints = 895
accept = 828
rejected = 67
matrix size = 8
fillins = 0
solver = Normal
Matrix Compiler1:      25 opcodes  0.2/[0.1]/0.2
Matrix Compiler2: off  [0.1]/0.2/0.2

