Circuit: * C:\users\jesus\Mis Documentos\UTSA\Pregrado\2022_1\Potencia\Labs\Lab0B\Half_Wave_Rectifier.asc

WARNING: Node N003 is floating.

Direct Newton iteration for .op point succeeded.

Date: Mon Sep 12 16:04:28 2022
Total elapsed time: 0.176 seconds.

tnom = 27
temp = 27
method = modified trap
totiter = 12253
traniter = 12244
tranpoints = 4921
accept = 4247
rejected = 674
matrix size = 37
fillins = 18
solver = Normal
Matrix Compiler1: 2.16 KB object code size  0.9/0.4/[0.2]
Matrix Compiler2: 2.84 KB object code size  0.4/0.5/[0.2]

