Circuit: * C:\users\jesus\Mis Documentos\UTSA\Materias\Potencia\Labs\Lab3\AC_AC_Converter.asc

Direct Newton iteration for .op point succeeded.

Date: Tue Apr 19 11:12:45 2022
Total elapsed time: 0.309 seconds.

tnom = 27
temp = 27
method = modified trap
totiter = 25729
traniter = 25694
tranpoints = 9225
accept = 7310
rejected = 1915
matrix size = 64
fillins = 51
solver = Normal
Matrix Compiler1: 4.99 KB object code size  1.4/0.6/[0.4]
Matrix Compiler2: off  [0.4]/0.8/0.5

