Circuit: * C:\users\jesus\Mis Documentos\UTSA\Pregrado\Potencia\Labs\Lab3\AC_AC_Converter_Zero_Crossing.asc

Direct Newton iteration for .op point succeeded.

Date: Mon May 16 15:47:30 2022
Total elapsed time: 0.481 seconds.

tnom = 27
temp = 27
method = modified trap
totiter = 17231
traniter = 17196
tranpoints = 5795
accept = 4395
rejected = 1400
matrix size = 140
fillins = 99
solver = Normal
Thread vector: 13.7/10.5[2] 3.7/3.1[2] 4.8/3.5[2] 0.9/1.8[1]  2592/500
Matrix Compiler1: 12.14 KB object code size  3.3/1.6/[0.9]
Matrix Compiler2: 12.30 KB object code size  1.3/2.1/[0.9]

