Circuit: * C:\users\jesus\Mis Documentos\UTSA\Pregrado\2022_1\Potencia\Labs\Lab7\ThreePhaseRectifier.asc

Early termination of direct N-R iteration.
Direct Newton iteration failed to find .op point.  (Use ".option noopiter" to skip.)
Starting Gmin stepping
Gmin = 10
Gmin = 1.07374
Gmin = 0.115292
Gmin = 0.0123794
Gmin = 0.00132923
Gmin = 0.000142725
Gmin = 1.5325e-005
Gmin = 1.6455e-006
Gmin = 1.76685e-007
Gmin = 1.89714e-008
Gmin = 2.03704e-009
Gmin = 2.18725e-010
Gmin = 2.34854e-011
Gmin = 2.52173e-012
Gmin = 2.70769e-013
Gmin = 0
Gmin stepping succeeded in finding the operating point.


Date: Wed Sep 28 18:54:15 2022
Total elapsed time: 0.818 seconds.

tnom = 27
temp = 27
method = modified trap
totiter = 20782
traniter = 20483
tranpoints = 10139
accept = 10095
rejected = 44
matrix size = 31
fillins = 75
solver = Normal
Thread vector: 25.5/14.9[3] 7.0/4.1[3] 6.0/3.8[3] 0.3/1.7[1]  2592/500
Matrix Compiler1: 6.93 KB object code size  2.4/1.5/[1.0]
Matrix Compiler2: 5.04 KB object code size  2.2/1.3/[0.5]

