Circuit: * C:\users\jesus\Mis Documentos\UTSA\Pregrado\Potencia\Labs\Lab6\SPWM.asc

Warning: Multiple definitions of model "2scr375p" Type: BJT
Warning: Multiple definitions of model "bc857b" Type: BJT
Warning: Multiple definitions of model "bc847c" Type: BJT
Warning: Multiple definitions of model "bc847b" Type: BJT
Direct Newton iteration for .op point succeeded.

Date: Thu May 19 14:54:43 2022
Total elapsed time: 4.123 seconds.

tnom = 27
temp = 27
method = modified trap
totiter = 181550
traniter = 181520
tranpoints = 45395
accept = 32711
rejected = 12684
matrix size = 129
fillins = 74
solver = Normal
Matrix Compiler1: 10.62 KB object code size  3.2/2.3/[0.8]
Matrix Compiler2: 11.27 KB object code size  1.7/2.1/[1.2]

